
     RDKit          3D

  9  8  0  0  0  0  0  0  0  0999 V2000
    0.9192   -0.1224    0.0544 C   0  0  0  0  0  0  0  0  0  0  0  0
   -0.5927   -0.3040    0.0002 C   0  0  0  0  0  0  0  0  0  0  0  0
   -1.2397    0.8629    0.4291 O   0  0  0  0  0  0  0  0  0  0  0  0
    1.2353    0.1263    1.0897 H   0  0  0  0  0  0  0  0  0  0  0  0
    1.2301    0.6960   -0.6290 H   0  0  0  0  0  0  0  0  0  0  0  0
    1.4205   -1.0622   -0.2594 H   0  0  0  0  0  0  0  0  0  0  0  0
   -0.8821   -1.1401    0.6711 H   0  0  0  0  0  0  0  0  0  0  0  0
   -0.9072   -0.5675   -1.0351 H   0  0  0  0  0  0  0  0  0  0  0  0
   -1.1833    1.5109   -0.3211 H   0  0  0  0  0  0  0  0  0  0  0  0
  1  2  1  0
  2  3  1  0
  1  4  1  0
  1  5  1  0
  1  6  1  0
  2  7  1  0
  2  8  1  0
  3  9  1  0
M  END
$$$$
