
     RDKit          3D

 28 29  0  0  0  0  0  0  0  0999 V2000
    1.3517    1.4801   -0.3690 C   0  0  0  0  0  0  0  0  0  0  0  0
    2.3807    0.6299    0.3795 C   0  0  0  0  0  0  0  0  0  0  0  0
    2.4174   -0.7883   -0.1880 C   0  0  0  0  0  0  0  0  0  0  0  0
    1.0461   -1.4514   -0.0572 C   0  0  0  0  0  0  0  0  0  0  0  0
   -0.0597   -0.6454   -0.7786 C   0  0  0  0  0  0  0  0  0  0  0  0
   -1.4410   -1.3275   -0.5477 C   0  0  0  0  0  0  0  0  0  0  0  0
   -2.5742   -0.3253   -0.2976 C   0  0  0  0  0  0  0  0  0  0  0  0
   -2.2670    0.5843    0.9072 C   0  0  0  0  0  0  0  0  0  0  0  0
   -0.7959    1.0551    0.9765 C   0  0  0  0  0  0  0  0  0  0  0  0
   -0.0618    0.8570   -0.3638 C   0  0  0  0  0  0  0  0  0  0  0  0
    1.6878    1.5955   -1.4234 H   0  0  0  0  0  0  0  0  0  0  0  0
    1.3228    2.4988    0.0749 H   0  0  0  0  0  0  0  0  0  0  0  0
    2.1389    0.6015    1.4641 H   0  0  0  0  0  0  0  0  0  0  0  0
    3.3850    1.0926    0.2686 H   0  0  0  0  0  0  0  0  0  0  0  0
    2.7250   -0.7630   -1.2566 H   0  0  0  0  0  0  0  0  0  0  0  0
    3.1683   -1.3867    0.3716 H   0  0  0  0  0  0  0  0  0  0  0  0
    0.8030   -1.5603    1.0228 H   0  0  0  0  0  0  0  0  0  0  0  0
    1.1003   -2.4724   -0.4942 H   0  0  0  0  0  0  0  0  0  0  0  0
    0.1596   -0.6808   -1.8700 H   0  0  0  0  0  0  0  0  0  0  0  0
   -1.4074   -2.0171    0.3251 H   0  0  0  0  0  0  0  0  0  0  0  0
   -1.6974   -1.9480   -1.4338 H   0  0  0  0  0  0  0  0  0  0  0  0
   -2.7269    0.2936   -1.2087 H   0  0  0  0  0  0  0  0  0  0  0  0
   -3.5213   -0.8760   -0.1102 H   0  0  0  0  0  0  0  0  0  0  0  0
   -2.9368    1.4702    0.8558 H   0  0  0  0  0  0  0  0  0  0  0  0
   -2.5152    0.0408    1.8451 H   0  0  0  0  0  0  0  0  0  0  0  0
   -0.7745    2.1294    1.2627 H   0  0  0  0  0  0  0  0  0  0  0  0
   -0.2706    0.4916    1.7772 H   0  0  0  0  0  0  0  0  0  0  0  0
   -0.6368    1.4221   -1.1322 H   0  0  0  0  0  0  0  0  0  0  0  0
  1  2  1  0
  2  3  1  0
  3  4  1  0
  4  5  1  0
  5  6  1  0
  6  7  1  0
  7  8  1  0
  8  9  1  0
  9 10  1  0
 10  1  1  0
 10  5  1  0
  1 11  1  0
  1 12  1  0
  2 13  1  0
  2 14  1  0
  3 15  1  0
  3 16  1  0
  4 17  1  0
  4 18  1  0
  5 19  1  0
  6 20  1  0
  6 21  1  0
  7 22  1  0
  7 23  1  0
  8 24  1  0
  8 25  1  0
  9 26  1  0
  9 27  1  0
 10 28  1  0
M  END
$$$$
