21
Generated by RDKit
C 2.8675 0.1196 -2.3589
C -2.4301 1.0041 1.4234
C -1.8726 1.8768 0.4919
C -1.8932 -0.2725 1.5960
C -0.7701 1.4802 -0.2652
C 1.9122 0.6359 -1.3376
C -0.7808 -0.6941 0.8423
C -0.2021 0.2028 -0.0908
C -0.2421 -2.0625 1.0575
O 2.0887 1.7839 -0.8470
O 0.7665 -2.4708 0.4213
O -0.8513 -2.9163 1.9741
O 0.8993 -0.2061 -0.8606
H 2.3718 -0.6531 -2.9830
H 3.7451 -0.3304 -1.8501
H 3.2083 0.9469 -3.0166
H -3.2865 1.3141 2.0084
H -2.3013 2.8604 0.3491
H -2.3530 -0.9305 2.3226
H -0.3813 2.1630 -1.0083
H -0.4949 -3.8515 2.1314
